         18

  Si      6.764549      0.001258      4.666755
  Si     20.283753     -7.806741      4.656732
  Si     20.283311      7.809253      4.656101
  Si     20.251364      0.001334      4.553255
  Si     13.538760      3.877145      4.549880
  Si     13.539190     -3.875146      4.548131
  Si     40.564816      0.001111      4.549522
  Si     27.043459      7.810586      4.545880
  Si     27.067868      0.001091      4.491011
  Si     27.043732     -7.807210      4.545011
  Si     33.789844     -3.879035      4.491154
  Si     33.790228      3.881213      4.490988
  Si     29.256639      3.973661      3.917200
  Si     29.256584     -3.970443      3.916707
  Si     36.134855      0.001140      3.917010
  Si     11.192240      0.000839      3.899396
  Si     18.068936     -3.971751      3.900184
  Si     18.068618      3.973970      3.900350