57

Fe       7.19970872       9.29350788       7.59618718       26 
N      10.51726089       9.93331118       7.86118060        7 
N       7.84048835       5.97682304       7.84931645        7 
N       3.88241479       8.65090260       7.83757613        7 
N       6.55834964      12.60879835       7.84709020        7 
N       8.78908506       8.21811978       7.77357479        7 
C       8.85230163       6.82947040       7.82648510        6 
C      10.10347341       8.67740432       7.84245778        6 
C      10.23845911       6.39070418       7.88747383        6 
C      11.02563085       7.55709859       7.89859290        6 
C      10.82470226       5.12090218       7.91077245        6 
C      12.42425892       7.48889241       7.93086954        6 
C      12.22197352       5.05057876       7.93301059        6 
C      13.01048249       6.22042342       7.95182813        6 
H      10.20920196       4.22142951       7.88934606        1 
H      13.02660176       8.39751350       7.93360327        1 
H      14.09750773       6.12916099       7.96446912        1 
H      12.71251339       4.07646459       7.93342282        1 
N       6.12520063       7.70348594       7.77019546        7 
C       4.73581888       7.64070224       7.83167686        6 
C       6.58426716       6.39072270       7.84144176        6 
C       4.29654623       6.25791192       7.88828612        6 
C       5.46293430       5.46852134       7.89910726        6 
C       3.02352578       5.67482213       7.91915832        6 
C       5.38980253       4.07126596       7.91413801        6 
C       2.94921078       4.28030312       7.92913860        6 
C       4.11850773       3.48797932       7.91561601        6 
H       2.12842729       6.29728429       7.91142651        1 
H       6.29522792       3.46446850       7.90206960        1 
H       4.02437134       2.40139752       7.90704598        1 
H       1.97526330       3.78932828       7.92773787        1 
N       5.61064406      10.36808053       7.77098182        7 
C       5.54638925      11.75639282       7.83197267        6 
C       4.29645680       9.90807366       7.82320579        6 
C       4.16017567      12.19418536       7.88709282        6 
C       3.37326588      11.02691092       7.88617417        6 
C       3.57269425      13.46326873       7.92752355        6 
C       1.97503681      11.09354385       7.90891345        6 
C       2.17553888      13.53274652       7.94089321        6 
C       1.38800360      12.36241450       7.93724665        6 
H       4.18835277      14.36295889       7.92503959        1 
H       1.37254950      10.18490478       7.90635805        1 
H       0.30087463      12.45245294       7.93839073        1 
H       1.68465081      14.50665326       7.95264148        1 
N       8.27386490      10.88062782       7.78820707        7 
C       9.66294820      10.94395657       7.84754000        6 
C       7.81463275      12.19393135       7.84401092        6 
C      10.10197319      12.32728771       7.89006945        6 
C       8.93586083      13.11650684       7.89033933        6 
C      11.37467085      12.91164117       7.90158646        6 
C       9.00765589      14.51441734       7.88632128        6 
C      11.44821642      14.30664755       7.89410760        6 
C      10.27813840      15.09853109       7.88180529        6 
H      12.27073720      12.29053847       7.89705141        1 
H       8.10120549      15.11977173       7.87167260        1 
H      10.37164666      16.18496048       7.86100862        1 
H      12.42213110      14.79759224       7.88333355        1 